opendss_networks/LV24_246bus/Groundings.dss
new reactor.tx_busgrounding_B255 phases=1 bus1=B255.4 bus2=B255.0 r=0.3 x=0.0
new reactor.loadbusgrounding_B2027 phases=1 bus1=B2027.4 bus2=B2027.0 r=10.0 x=0.0
new reactor.loadbusgrounding_B1914 phases=1 bus1=B1914.4 bus2=B1914.0 r=10.0 x=0.0
new reactor.loadbusgrounding_B1823 phases=1 bus1=B1823.4 bus2=B1823.0 r=10.0 x=0.0
new reactor.loadbusgrounding_B788 phases=1 bus1=B788.4 bus2=B788.0 r=10.0 x=0.0
new reactor.loadbusgrounding_B1459 phases=1 bus1=B1459.4 bus2=B1459.0 r=10.0 x=0.0
new reactor.loadbusgrounding_B376 phases=1 bus1=B376.4 bus2=B376.0 r=10.0 x=0.0
new reactor.loadbusgrounding_B2464 phases=1 bus1=B2464.4 bus2=B2464.0 r=10.0 x=0.0
new reactor.loadbusgrounding_B1697 phases=1 bus1=B1697.4 bus2=B1697.0 r=10.0 x=0.0
new reactor.loadbusgrounding_B757 phases=1 bus1=B757.4 bus2=B757.0 r=10.0 x=0.0
new reactor.loadbusgrounding_B877 phases=1 bus1=B877.4 bus2=B877.0 r=10.0 x=0.0
new reactor.loadbusgrounding_B517 phases=1 bus1=B517.4 bus2=B517.0 r=10.0 x=0.0
new reactor.loadbusgrounding_B208 phases=1 bus1=B208.4 bus2=B208.0 r=10.0 x=0.0
new reactor.loadbusgrounding_B2290 phases=1 bus1=B2290.4 bus2=B2290.0 r=10.0 x=0.0
new reactor.loadbusgrounding_B2148 phases=1 bus1=B2148.4 bus2=B2148.0 r=10.0 x=0.0
new reactor.loadbusgrounding_B2783 phases=1 bus1=B2783.4 bus2=B2783.0 r=10.0 x=0.0
new reactor.loadbusgrounding_B1974 phases=1 bus1=B1974.4 bus2=B1974.0 r=10.0 x=0.0
new reactor.loadbusgrounding_B2130 phases=1 bus1=B2130.4 bus2=B2130.0 r=10.0 x=0.0
new reactor.loadbusgrounding_B821 phases=1 bus1=B821.4 bus2=B821.0 r=10.0 x=0.0
new reactor.loadbusgrounding_B1409 phases=1 bus1=B1409.4 bus2=B1409.0 r=10.0 x=0.0
new reactor.loadbusgrounding_B2881 phases=1 bus1=B2881.4 bus2=B2881.0 r=10.0 x=0.0
new reactor.loadbusgrounding_B3208 phases=1 bus1=B3208.4 bus2=B3208.0 r=10.0 x=0.0
new reactor.loadbusgrounding_B1820 phases=1 bus1=B1820.4 bus2=B1820.0 r=10.0 x=0.0
new reactor.loadbusgrounding_B1961 phases=1 bus1=B1961.4 bus2=B1961.0 r=10.0 x=0.0
new reactor.loadbusgrounding_B338 phases=1 bus1=B338.4 bus2=B338.0 r=10.0 x=0.0
new reactor.loadbusgrounding_B279 phases=1 bus1=B279.4 bus2=B279.0 r=10.0 x=0.0
new reactor.loadbusgrounding_B1100 phases=1 bus1=B1100.4 bus2=B1100.0 r=10.0 x=0.0
new reactor.loadbusgrounding_B3341 phases=1 bus1=B3341.4 bus2=B3341.0 r=10.0 x=0.0
new reactor.loadbusgrounding_B684 phases=1 bus1=B684.4 bus2=B684.0 r=10.0 x=0.0
new reactor.loadbusgrounding_B2934 phases=1 bus1=B2934.4 bus2=B2934.0 r=10.0 x=0.0
new reactor.loadbusgrounding_B2345 phases=1 bus1=B2345.4 bus2=B2345.0 r=10.0 x=0.0
new reactor.loadbusgrounding_B1051 phases=1 bus1=B1051.4 bus2=B1051.0 r=10.0 x=0.0
new reactor.loadbusgrounding_B2823 phases=1 bus1=B2823.4 bus2=B2823.0 r=10.0 x=0.0
new reactor.loadbusgrounding_B827 phases=1 bus1=B827.4 bus2=B827.0 r=10.0 x=0.0
new reactor.loadbusgrounding_B510 phases=1 bus1=B510.4 bus2=B510.0 r=10.0 x=0.0
new reactor.loadbusgrounding_B3201 phases=1 bus1=B3201.4 bus2=B3201.0 r=10.0 x=0.0
new reactor.loadbusgrounding_B2058 phases=1 bus1=B2058.4 bus2=B2058.0 r=10.0 x=0.0
new reactor.loadbusgrounding_B445 phases=1 bus1=B445.4 bus2=B445.0 r=10.0 x=0.0
new reactor.loadbusgrounding_B1654 phases=1 bus1=B1654.4 bus2=B1654.0 r=10.0 x=0.0
new reactor.loadbusgrounding_B75 phases=1 bus1=B75.4 bus2=B75.0 r=10.0 x=0.0
new reactor.loadbusgrounding_B1739 phases=1 bus1=B1739.4 bus2=B1739.0 r=10.0 x=0.0
new reactor.loadbusgrounding_B3113 phases=1 bus1=B3113.4 bus2=B3113.0 r=10.0 x=0.0
new reactor.loadbusgrounding_B328 phases=1 bus1=B328.4 bus2=B328.0 r=10.0 x=0.0
new reactor.loadbusgrounding_B1691 phases=1 bus1=B1691.4 bus2=B1691.0 r=10.0 x=0.0
new reactor.loadbusgrounding_B1539 phases=1 bus1=B1539.4 bus2=B1539.0 r=10.0 x=0.0
new reactor.loadbusgrounding_B2599 phases=1 bus1=B2599.4 bus2=B2599.0 r=10.0 x=0.0
new reactor.loadbusgrounding_B1846 phases=1 bus1=B1846.4 bus2=B1846.0 r=10.0 x=0.0
new reactor.loadbusgrounding_B2207 phases=1 bus1=B2207.4 bus2=B2207.0 r=10.0 x=0.0
new reactor.loadbusgrounding_B2731 phases=1 bus1=B2731.4 bus2=B2731.0 r=10.0 x=0.0
new reactor.loadbusgrounding_B2641 phases=1 bus1=B2641.4 bus2=B2641.0 r=10.0 x=0.0
new reactor.loadbusgrounding_B2790 phases=1 bus1=B2790.4 bus2=B2790.0 r=10.0 x=0.0
new reactor.loadbusgrounding_B3155 phases=1 bus1=B3155.4 bus2=B3155.0 r=10.0 x=0.0
new reactor.loadbusgrounding_B1672 phases=1 bus1=B1672.4 bus2=B1672.0 r=10.0 x=0.0
new reactor.loadbusgrounding_B2152 phases=1 bus1=B2152.4 bus2=B2152.0 r=10.0 x=0.0
new reactor.loadbusgrounding_B1280 phases=1 bus1=B1280.4 bus2=B1280.0 r=10.0 x=0.0
new reactor.loadbusgrounding_B85 phases=1 bus1=B85.4 bus2=B85.0 r=10.0 x=0.0
new reactor.loadbusgrounding_B3052 phases=1 bus1=B3052.4 bus2=B3052.0 r=10.0 x=0.0
new reactor.loadbusgrounding_B2072 phases=1 bus1=B2072.4 bus2=B2072.0 r=10.0 x=0.0
new reactor.loadbusgrounding_B1830 phases=1 bus1=B1830.4 bus2=B1830.0 r=10.0 x=0.0
new reactor.loadbusgrounding_B423 phases=1 bus1=B423.4 bus2=B423.0 r=10.0 x=0.0
new reactor.loadbusgrounding_B2383 phases=1 bus1=B2383.4 bus2=B2383.0 r=10.0 x=0.0
new reactor.loadbusgrounding_B3403 phases=1 bus1=B3403.4 bus2=B3403.0 r=10.0 x=0.0
new reactor.loadbusgrounding_B630 phases=1 bus1=B630.4 bus2=B630.0 r=10.0 x=0.0
new reactor.loadbusgrounding_B2895 phases=1 bus1=B2895.4 bus2=B2895.0 r=10.0 x=0.0
new reactor.loadbusgrounding_B3073 phases=1 bus1=B3073.4 bus2=B3073.0 r=10.0 x=0.0
new reactor.loadbusgrounding_B2640 phases=1 bus1=B2640.4 bus2=B2640.0 r=10.0 x=0.0
new reactor.loadbusgrounding_B1415 phases=1 bus1=B1415.4 bus2=B1415.0 r=10.0 x=0.0
new reactor.loadbusgrounding_B53 phases=1 bus1=B53.4 bus2=B53.0 r=10.0 x=0.0
new reactor.loadbusgrounding_B2100 phases=1 bus1=B2100.4 bus2=B2100.0 r=10.0 x=0.0
new reactor.loadbusgrounding_B3298 phases=1 bus1=B3298.4 bus2=B3298.0 r=10.0 x=0.0
new reactor.loadbusgrounding_B511 phases=1 bus1=B511.4 bus2=B511.0 r=10.0 x=0.0
new reactor.loadbusgrounding_B1940 phases=1 bus1=B1940.4 bus2=B1940.0 r=10.0 x=0.0
new reactor.loadbusgrounding_B1412 phases=1 bus1=B1412.4 bus2=B1412.0 r=10.0 x=0.0
new reactor.loadbusgrounding_B22 phases=1 bus1=B22.4 bus2=B22.0 r=10.0 x=0.0
new reactor.loadbusgrounding_B2013 phases=1 bus1=B2013.4 bus2=B2013.0 r=10.0 x=0.0
new reactor.loadbusgrounding_B1525 phases=1 bus1=B1525.4 bus2=B1525.0 r=10.0 x=0.0
new reactor.loadbusgrounding_B2129 phases=1 bus1=B2129.4 bus2=B2129.0 r=10.0 x=0.0
new reactor.loadbusgrounding_B2343 phases=1 bus1=B2343.4 bus2=B2343.0 r=10.0 x=0.0
new reactor.loadbusgrounding_B1138 phases=1 bus1=B1138.4 bus2=B1138.0 r=10.0 x=0.0
new reactor.loadbusgrounding_B2368 phases=1 bus1=B2368.4 bus2=B2368.0 r=10.0 x=0.0
new reactor.loadbusgrounding_B220 phases=1 bus1=B220.4 bus2=B220.0 r=10.0 x=0.0
new reactor.loadbusgrounding_B723 phases=1 bus1=B723.4 bus2=B723.0 r=10.0 x=0.0
new reactor.loadbusgrounding_B3009 phases=1 bus1=B3009.4 bus2=B3009.0 r=10.0 x=0.0
new reactor.loadbusgrounding_B2120 phases=1 bus1=B2120.4 bus2=B2120.0 r=10.0 x=0.0
new reactor.loadbusgrounding_B1341 phases=1 bus1=B1341.4 bus2=B1341.0 r=10.0 x=0.0
new reactor.loadbusgrounding_B1883 phases=1 bus1=B1883.4 bus2=B1883.0 r=10.0 x=0.0
new reactor.loadbusgrounding_B2363 phases=1 bus1=B2363.4 bus2=B2363.0 r=10.0 x=0.0
new reactor.loadbusgrounding_B122 phases=1 bus1=B122.4 bus2=B122.0 r=10.0 x=0.0
new reactor.loadbusgrounding_B2919 phases=1 bus1=B2919.4 bus2=B2919.0 r=10.0 x=0.0
new reactor.loadbusgrounding_B2889 phases=1 bus1=B2889.4 bus2=B2889.0 r=10.0 x=0.0
new reactor.loadbusgrounding_B3323 phases=1 bus1=B3323.4 bus2=B3323.0 r=10.0 x=0.0
new reactor.loadbusgrounding_B2367 phases=1 bus1=B2367.4 bus2=B2367.0 r=10.0 x=0.0
new reactor.loadbusgrounding_B2765 phases=1 bus1=B2765.4 bus2=B2765.0 r=10.0 x=0.0
new reactor.loadbusgrounding_B2454 phases=1 bus1=B2454.4 bus2=B2454.0 r=10.0 x=0.0
new reactor.loadbusgrounding_B661 phases=1 bus1=B661.4 bus2=B661.0 r=10.0 x=0.0
new reactor.loadbusgrounding_B2873 phases=1 bus1=B2873.4 bus2=B2873.0 r=10.0 x=0.0
new reactor.loadbusgrounding_B796 phases=1 bus1=B796.4 bus2=B796.0 r=10.0 x=0.0
new reactor.loadbusgrounding_B2183 phases=1 bus1=B2183.4 bus2=B2183.0 r=10.0 x=0.0
new reactor.loadbusgrounding_B672 phases=1 bus1=B672.4 bus2=B672.0 r=10.0 x=0.0
new reactor.loadbusgrounding_B160 phases=1 bus1=B160.4 bus2=B160.0 r=10.0 x=0.0
new reactor.loadbusgrounding_B3407 phases=1 bus1=B3407.4 bus2=B3407.0 r=10.0 x=0.0
new reactor.loadbusgrounding_B2784 phases=1 bus1=B2784.4 bus2=B2784.0 r=10.0 x=0.0
new reactor.loadbusgrounding_B2298 phases=1 bus1=B2298.4 bus2=B2298.0 r=10.0 x=0.0
new reactor.loadbusgrounding_B283 phases=1 bus1=B283.4 bus2=B283.0 r=10.0 x=0.0
new reactor.loadbusgrounding_B2902 phases=1 bus1=B2902.4 bus2=B2902.0 r=10.0 x=0.0
new reactor.loadbusgrounding_B499 phases=1 bus1=B499.4 bus2=B499.0 r=10.0 x=0.0
new reactor.loadbusgrounding_B2189 phases=1 bus1=B2189.4 bus2=B2189.0 r=10.0 x=0.0
new reactor.loadbusgrounding_B2854 phases=1 bus1=B2854.4 bus2=B2854.0 r=10.0 x=0.0
new reactor.loadbusgrounding_B3188 phases=1 bus1=B3188.4 bus2=B3188.0 r=10.0 x=0.0
new reactor.loadbusgrounding_B3345 phases=1 bus1=B3345.4 bus2=B3345.0 r=10.0 x=0.0
new reactor.loadbusgrounding_B1724 phases=1 bus1=B1724.4 bus2=B1724.0 r=10.0 x=0.0
new reactor.loadbusgrounding_B2671 phases=1 bus1=B2671.4 bus2=B2671.0 r=10.0 x=0.0
new reactor.loadbusgrounding_B2684 phases=1 bus1=B2684.4 bus2=B2684.0 r=10.0 x=0.0
new reactor.loadbusgrounding_B3025 phases=1 bus1=B3025.4 bus2=B3025.0 r=10.0 x=0.0
new reactor.loadbusgrounding_B3224 phases=1 bus1=B3224.4 bus2=B3224.0 r=10.0 x=0.0
new reactor.loadbusgrounding_B1720 phases=1 bus1=B1720.4 bus2=B1720.0 r=10.0 x=0.0
new reactor.loadbusgrounding_B2198 phases=1 bus1=B2198.4 bus2=B2198.0 r=10.0 x=0.0
new reactor.loadbusgrounding_B2380 phases=1 bus1=B2380.4 bus2=B2380.0 r=10.0 x=0.0
new reactor.loadbusgrounding_B59 phases=1 bus1=B59.4 bus2=B59.0 r=10.0 x=0.0
new reactor.loadbusgrounding_B3038 phases=1 bus1=B3038.4 bus2=B3038.0 r=10.0 x=0.0
new reactor.loadbusgrounding_B844 phases=1 bus1=B844.4 bus2=B844.0 r=10.0 x=0.0
new reactor.loadbusgrounding_B65 phases=1 bus1=B653.4 bus2=B653.0 r=10.0 x=0.0
